EPRI_Ckt7_DER_Project/electricdss-code-r4133-trunk-Distrib-EPRITestCircuits-ckt7/ckt7_VLN_elem.Txt

NODE-GROUND VOLTAGES BY CIRCUIT ELEMENT

Power Delivery Elements

Bus           (node ref)  Phase    Magnitude, kV (pu)    Angle

ELEMENT = "Vsource.SOURCE"
SOURCEBUS      (  1)    1           69.715 (    1.05) /_    0.0
SOURCEBUS      (  2)    2           69.715 (    1.05) /_ -120.0
SOURCEBUS      (  3)    3           69.715 (    1.05) /_  120.0
------------
SOURCEBUS      (  0)    0                0 (       0) /_    0.0
SOURCEBUS      (  0)    0                0 (       0) /_    0.0
SOURCEBUS      (  0)    0                0 (       0) /_    0.0

ELEMENT = "Transformer.SUB1"
SOURCEBUS      (  1)    1           69.715 (    1.05) /_    0.0
SOURCEBUS      (  2)    2           69.715 (    1.05) /_ -120.0
SOURCEBUS      (  3)    3           69.715 (    1.05) /_  120.0
SOURCEBUS      (  0)    0                0 (       0) /_    0.0
------------
CKT7           (  4)    1           7.5596 (    1.05) /_  -30.0
CKT7           (  5)    2           7.5596 (    1.05) /_ -150.0
CKT7           (  6)    3           7.5596 (    1.05) /_   90.0
CKT7           (  0)    0                0 (       0) /_    0.0

ELEMENT = "Transformer.SUB2"
SOURCEBUS      (  1)    1           69.715 (    1.05) /_    0.0
SOURCEBUS      (  2)    2           69.715 (    1.05) /_ -120.0
SOURCEBUS      (  3)    3           69.715 (    1.05) /_  120.0
SOURCEBUS      (  0)    0                0 (       0) /_    0.0
------------
CKT7           (  4)    1           7.5596 (    1.05) /_  -30.0
CKT7           (  5)    2           7.5596 (    1.05) /_ -150.0
CKT7           (  6)    3           7.5596 (    1.05) /_   90.0
CKT7           (  0)    0                0 (       0) /_    0.0

ELEMENT = "Transformer.SUB3"
SOURCEBUS      (  1)    1           69.715 (    1.05) /_    0.0
SOURCEBUS      (  2)    2           69.715 (    1.05) /_ -120.0
SOURCEBUS      (  3)    3           69.715 (    1.05) /_  120.0
SOURCEBUS      (  0)    0                0 (       0) /_    0.0
------------
CKT7           (  4)    1           7.5596 (    1.05) /_  -30.0
CKT7           (  5)    2           7.5596 (    1.05) /_ -150.0
CKT7           (  6)    3           7.5596 (    1.05) /_   90.0
CKT7           (  0)    0                0 (       0) /_    0.0

ELEMENT = "Line.326"
CKT7           (  4)    1           7.5596 (    1.05) /_  -30.0
CKT7           (  5)    2           7.5596 (    1.05) /_ -150.0
CKT7           (  6)    3           7.5596 (    1.05) /_   90.0
------------
318405         (  7)    1           7.5596 (    1.05) /_  -30.0
318405         (  8)    2           7.5596 (    1.05) /_ -150.0
318405         (  9)    3           7.5596 (    1.05) /_   90.0

ELEMENT = "Line.333"
CKT7           (  4)    1           7.5596 (    1.05) /_  -30.0
CKT7           (  5)    2           7.5596 (    1.05) /_ -150.0
CKT7           (  6)    3           7.5596 (    1.05) /_   90.0
------------
318412         ( 10)    1           7.5596 (    1.05) /_  -30.0
318412         ( 11)    2           7.5596 (    1.05) /_ -150.0
318412         ( 12)    3           7.5596 (    1.05) /_   90.0

ELEMENT = "Line.335"
CKT7           (  4)    1           7.5596 (    1.05) /_  -30.0
CKT7           (  5)    2           7.5596 (    1.05) /_ -150.0
CKT7           (  6)    3           7.5596 (    1.05) /_   90.0
------------
318414         ( 13)    1           7.5596 (    1.05) /_  -30.0
318414         ( 14)    2           7.5596 (    1.05) /_ -150.0
318414         ( 15)    3           7.5596 (    1.05) /_   90.0

ELEMENT = "Line.150394"
157345         ( 16)    1           7.5596 (    1.05) /_  -30.0
157345         ( 17)    2           7.5596 (    1.05) /_ -150.0
157345         ( 18)    3           7.5596 (    1.05) /_   90.0
------------
157346         ( 19)    1           7.5596 (    1.05) /_  -30.0
157346         ( 20)    2           7.5596 (    1.05) /_ -150.0
157346         ( 21)    3           7.5596 (    1.05) /_   90.0

ELEMENT = "Line.157109"
165442         ( 22)    1           7.5596 (    1.05) /_  -30.0
165442         ( 23)    2           7.5596 (    1.05) /_ -150.0
165442         ( 24)    3           7.5596 (    1.05) /_   90.0
------------
298160         ( 25)    1           7.5596 (    1.05) /_  -30.0
298160         ( 26)    2           7.5596 (    1.05) /_ -150.0
298160         ( 27)    3           7.5596 (    1.05) /_   90.0

ELEMENT = "Line.157115"
165448         ( 28)    1           7.5596 (    1.05) /_  -30.0
165448         ( 29)    2           7.5596 (    1.05) /_ -150.0
165448         ( 30)    3           7.5596 (    1.05) /_   90.0
------------
275354         ( 31)    1           7.5596 (    1.05) /_  -30.0
275354         ( 32)    2           7.5596 (    1.05) /_ -150.0
275354         ( 33)    3           7.5596 (    1.05) /_   90.0

ELEMENT = "Line.157116"
165449         ( 34)    1           7.5596 (    1.05) /_  -30.0
165449         ( 35)    2           7.5596 (    1.05) /_ -150.0
165449         ( 36)    3           7.5596 (    1.05) /_   90.0
------------
165450         ( 37)    1           7.5596 (    1.05) /_  -30.0
165450         ( 38)    2           7.5596 (    1.05) /_ -150.0
165450         ( 39)    3           7.5596 (    1.05) /_   90.0

ELEMENT = "Line.157118"
165453         ( 40)    1           7.5596 (    1.05) /_  -30.0
165453         ( 41)    2           7.5596 (    1.05) /_ -150.0
165453         ( 42)    3           7.5596 (    1.05) /_   90.0
------------
165454         ( 43)    1           7.5596 (    1.05) /_  -30.0
165454         ( 44)    2           7.5596 (    1.05) /_ -150.0
165454         ( 45)    3           7.5596 (    1.05) /_   90.0

ELEMENT = "Line.157119"
165449         ( 34)    1           7.5596 (    1.05) /_  -30.0
165449         ( 35)    2           7.5596 (    1.05) /_ -150.0
165449         ( 36)    3           7.5596 (    1.05) /_   90.0
------------
165451         ( 46)    1           7.5596 (    1.05) /_  -30.0
165451         ( 47)    2           7.5596 (    1.05) /_ -150.0
165451         ( 48)    3           7.5596 (    1.05) /_   90.0

ELEMENT = "Line.157120"
165454         ( 43)    1           7.5596 (    1.05) /_  -30.0
165454         ( 44)    2           7.5596 (    1.05) /_ -150.0
165454         ( 45)    3           7.5596 (    1.05) /_   90.0
------------
238402         ( 49)    1           7.5596 (    1.05) /_  -30.0
238402         ( 50)    2           7.5596 (    1.05) /_ -150.0
238402         ( 51)    3           7.5596 (    1.05) /_   90.0

ELEMENT = "Line.157121"
165455         ( 52)    1           7.5596 (    1.05) /_  -30.0
165455         ( 53)    2           7.5596 (    1.05) /_ -150.0
165455         ( 54)    3           7.5596 (    1.05) /_   90.0
------------
165456         ( 55)    1           7.5596 (    1.05) /_  -30.0
165456         ( 56)    2           7.5596 (    1.05) /_ -150.0
165456         ( 57)    3           7.5596 (    1.05) /_   90.0

ELEMENT = "Line.157122"
165452         ( 58)    1           7.5596 (    1.05) /_  -30.0
165452         ( 59)    2           7.5596 (    1.05) /_ -150.0
165452         ( 60)    3           7.5596 (    1.05) /_   90.0
------------
283563         ( 61)    1           7.5596 (    1.05) /_  -30.0
283563         ( 62)    2           7.5596 (    1.05) /_ -150.0
283563         ( 63)    3           7.5596 (    1.05) /_   90.0

ELEMENT = "Line.157123"
165455         ( 52)    1           7.5596 (    1.05) /_  -30.0
165455         ( 53)    2           7.5596 (    1.05) /_ -150.0
165455         ( 54)    3           7.5596 (    1.05) /_   90.0
------------
165457         ( 64)    1           7.5596 (    1.05) /_  -30.0
165457         ( 65)    2           7.5596 (    1.05) /_ -150.0
165457         ( 66)    3           7.5596 (    1.05) /_   90.0

ELEMENT = "Line.157124"
165458         ( 67)    1           7.5596 (    1.05) /_  -30.0
165458         ( 68)    2           7.5596 (    1.05) /_ -150.0
165458         ( 69)    3           7.5596 (    1.05) /_   90.0
------------
165459         ( 70)    1           7.5596 (    1.05) /_  -30.0
165459         ( 71)    2           7.5596 (    1.05) /_ -150.0
165459         ( 72)    3           7.5596 (    1.05) /_   90.0

ELEMENT = "Line.157126"
165458         ( 67)    1           7.5596 (    1.05) /_  -30.0
165458         ( 68)    2           7.5596 (    1.05) /_ -150.0
165458         ( 69)    3           7.5596 (    1.05) /_   90.0
------------
165460         ( 73)    1           7.5596 (    1.05) /_  -30.0
165460         ( 74)    2           7.5596 (    1.05) /_ -150.0
165460         ( 75)    3           7.5596 (    1.05) /_   90.0

ELEMENT = "Line.157127"
165460         ( 73)    1           7.5596 (    1.05) /_  -30.0
165460         ( 74)    2           7.5596 (    1.05) /_ -150.0
165460         ( 75)    3           7.5596 (    1.05) /_   90.0
------------
165461         ( 76)    1           7.5596 (    1.05) /_  -30.0
165461         ( 77)    2           7.5596 (    1.05) /_ -150.0
165461         ( 78)    3           7.5596 (    1.05) /_   90.0

ELEMENT = "Line.157128"
165461         ( 76)    1           7.5596 (    1.05) /_  -30.0
165461         ( 77)    2           7.5596 (    1.05) /_ -150.0
165461         ( 78)    3           7.5596 (    1.05) /_   90.0
------------
165463         ( 79)    1           7.5596 (    1.05) /_  -30.0
165463         ( 80)    2           7.5596 (    1.05) /_ -150.0
165463         ( 81)    3           7.5596 (    1.05) /_   90.0

ELEMENT = "Line.157129"
165463         ( 79)    1           7.5596 (    1.05) /_  -30.0
165463         ( 80)    2           7.5596 (    1.05) /_ -150.0
165463         ( 81)    3           7.5596 (    1.05) /_   90.0
------------
165462         ( 82)    1           7.5596 (    1.05) /_  -30.0
165462         ( 83)    2           7.5596 (    1.05) /_ -150.0
165462         ( 84)    3           7.5596 (    1.05) /_   90.0

ELEMENT = "Line.157130"
165465         ( 85)    1           7.5596 (    1.05) /_  -30.0
165465         ( 86)    2           7.5596 (    1.05) /_ -150.0
165465         ( 87)    3           7.5596 (    1.05) /_   90.0
------------
165463         ( 79)    1           7.5596 (    1.05) /_  -30.0
165463         ( 80)    2           7.5596 (    1.05) /_ -150.0
165463         ( 81)    3           7.5596 (    1.05) /_   90.0

ELEMENT = "Line.157131"
165461         ( 76)    1           7.5596 (    1.05) /_  -30.0
165461         ( 77)    2           7.5596 (    1.05) /_ -150.0
165461         ( 78)    3           7.5596 (    1.05) /_   90.0
------------
165466         ( 88)    1           7.5596 (    1.05) /_  -30.0
165466         ( 89)    2           7.5596 (    1.05) /_ -150.0
165466         ( 90)    3           7.5596 (    1.05) /_   90.0

ELEMENT = "Line.157132"
165451         ( 46)    1           7.5596 (    1.05) /_  -30.0
165451         ( 47)    2           7.5596 (    1.05) /_ -150.0
165451         ( 48)    3           7.5596 (    1.05) /_   90.0
------------
165467         ( 91)    1           7.5596 (    1.05) /_  -30.0
165467         ( 92)    2           7.5596 (    1.05) /_ -150.0
165467         ( 93)    3           7.5596 (    1.05) /_   90.0

ELEMENT = "Line.157133"
165467         ( 91)    1           7.5596 (    1.05) /_  -30.0
165467         ( 92)    2           7.5596 (    1.05) /_ -150.0
165467         ( 93)    3           7.5596 (    1.05) /_   90.0
------------
165468         ( 94)    1           7.5596 (    1.05) /_  -30.0
165468         ( 95)    2           7.5596 (    1.05) /_ -150.0
165468         ( 96)    3           7.5596 (    1.05) /_   90.0

ELEMENT = "Line.157136"
165475         ( 97)    1           7.5596 (    1.05) /_  -30.0
165475         ( 98)    2           7.5596 (    1.05) /_ -150.0
165475         ( 99)    3           7.5596 (    1.05) /_   90.0
------------
165476         (100)    1           7.5596 (    1.05) /_  -30.0
165476         (101)    2           7.5596 (    1.05) /_ -150.0
165476         (102)    3           7.5596 (    1.05) /_   90.0

ELEMENT = "Line.157137"
165477         (103)    1           7.5596 (    1.05) /_  -30.0
165477         (104)    2           7.5596 (    1.05) /_ -150.0
165477         (105)    3           7.5596 (    1.05) /_   90.0
------------
165476         (100)    1           7.5596 (    1.05) /_  -30.0
165476         (101)    2           7.5596 (    1.05) /_ -150.0
165476         (102)    3           7.5596 (    1.05) /_   90.0

ELEMENT = "Line.157138"
165475         ( 97)    1           7.5596 (    1.05) /_  -30.0
165475         ( 98)    2           7.5596 (    1.05) /_ -150.0
165475         ( 99)    3           7.5596 (    1.05) /_   90.0
------------
273626         (106)    1           7.5596 (    1.05) /_  -30.0
273626         (107)    2           7.5596 (    1.05) /_ -150.0
273626         (108)    3           7.5596 (    1.05) /_   90.0

ELEMENT = "Line.157142"
165468         ( 94)    1           7.5596 (    1.05) /_  -30.0
165468         ( 95)    2           7.5596 (    1.05) /_ -150.0
165468         ( 96)    3           7.5596 (    1.05) /_   90.0
------------
165469         (109)    1           7.5596 (    1.05) /_  -30.0
165469         (110)    2           7.5596 (    1.05) /_ -150.0
165469         (111)    3           7.5596 (    1.05) /_   90.0

ELEMENT = "Line.157143"
165469         (109)    1           7.5596 (    1.05) /_  -30.0
165469         (110)    2           7.5596 (    1.05) /_ -150.0
165469         (111)    3           7.5596 (    1.05) /_   90.0
------------
165480         (112)    1           7.5596 (    1.05) /_  -30.0
165480         (113)    2           7.5596 (    1.05) /_ -150.0
165480         (114)    3           7.5596 (    1.05) /_   90.0

ELEMENT = "Line.157144"
165478         (115)    1           7.5596 (    1.05) /_  -30.0
165478         (116)    2           7.5596 (    1.05) /_ -150.0
165478         (117)    3           7.5596 (    1.05) /_   90.0
------------
165479         (118)    1           7.5596 (    1.05) /_  -30.0
165479         (119)    2           7.5596 (    1.05) /_ -150.0
165479         (120)    3           7.5596 (    1.05) /_   90.0

ELEMENT = "Line.157145"
165480         (112)    1           7.5596 (    1.05) /_  -30.0
165480         (113)    2           7.5596 (    1.05) /_ -150.0
165480         (114)    3           7.5596 (    1.05) /_   90.0
------------
165478         (115)    1           7.5596 (    1.05) /_  -30.0
165478         (116)    2           7.5596 (    1.05) /_ -150.0
165478         (117)    3           7.5596 (    1.05) /_   90.0

ELEMENT = "Line.157147"
165484         (121)    1           7.5596 (    1.05) /_  -30.0
165484         (122)    2           7.5596 (    1.05) /_ -150.0
165484         (123)    3           7.5596 (    1.05) /_   90.0
------------
165483         (124)    1           7.5596 (    1.05) /_  -30.0
165483         (125)    2           7.5596 (    1.05) /_ -150.0
165483         (126)    3           7.5596 (    1.05) /_   90.0

ELEMENT = "Line.157148"
165483         (124)    1           7.5596 (    1.05) /_  -30.0
165483         (125)    2           7.5596 (    1.05) /_ -150.0
165483         (126)    3           7.5596 (    1.05) /_   90.0
------------
261839         (127)    1           7.5596 (    1.05) /_  -30.0
261839         (128)    2           7.5596 (    1.05) /_ -150.0
261839         (129)    3           7.5596 (    1.05) /_   90.0

ELEMENT = "Line.157149"
261838         (130)    1           7.5596 (    1.05) /_  -30.0
261838         (131)    2           7.5596 (    1.05) /_ -150.0
261838         (132)    3           7.5596 (    1.05) /_   90.0
------------
165478         (115)    1           7.5596 (    1.05) /_  -30.0
165478         (116)    2           7.5596 (    1.05) /_ -150.0
165478         (117)    3           7.5596 (    1.05) /_   90.0

ELEMENT = "Line.157150"
165479         (118)    1           7.5596 (    1.05) /_  -30.0
165479         (119)    2           7.5596 (    1.05) /_ -150.0
165479         (120)    3           7.5596 (    1.05) /_   90.0
------------
165486         (133)    1           7.5596 (    1.05) /_  -30.0
165486         (134)    2           7.5596 (    1.05) /_ -150.0
165486         (135)    3           7.5596 (    1.05) /_   90.0

ELEMENT = "Line.157151"
165486         (133)    1           7.5596 (    1.05) /_  -30.0
165486         (134)    2           7.5596 (    1.05) /_ -150.0
165486         (135)    3           7.5596 (    1.05) /_   90.0
------------
165485         (136)    1           7.5596 (    1.05) /_  -30.0
165485         (137)    2           7.5596 (    1.05) /_ -150.0
165485         (138)    3           7.5596 (    1.05) /_   90.0

ELEMENT = "Line.157152"
165479         (118)    1           7.5596 (    1.05) /_  -30.0
165479         (119)    2           7.5596 (    1.05) /_ -150.0
165479         (120)    3           7.5596 (    1.05) /_   90.0
------------
165487         (139)    1           7.5596 (    1.05) /_  -30.0
165487         (140)    2           7.5596 (    1.05) /_ -150.0
165487         (141)    3           7.5596 (    1.05) /_   90.0

ELEMENT = "Line.157153"
165488         (142)    1           7.5596 (    1.05) /_  -30.0
------------
165489         (143)    1           7.5596 (    1.05) /_  -30.0

ELEMENT = "Line.157155"
165488         (142)    1           7.5596 (    1.05) /_  -30.0
------------
165491         (144)    1           7.5596 (    1.05) /_  -30.0

ELEMENT = "Line.157156"
165491         (144)    1           7.5596 (    1.05) /_  -30.0
------------
165490         (145)    1           7.5596 (    1.05) /_  -30.0

ELEMENT = "Line.157157"
165490         (145)    1           7.5596 (    1.05) /_  -30.0
------------
165494         (146)    1           7.5596 (    1.05) /_  -30.0

ELEMENT = "Line.157158"
165490         (145)    1           7.5596 (    1.05) /_  -30.0
------------
165492         (147)    1           7.5596 (    1.05) /_  -30.0

ELEMENT = "Line.157159"
165494         (146)    1           7.5596 (    1.05) /_  -30.0
------------
165493         (148)    1           7.5596 (    1.05) /_  -30.0

ELEMENT = "Line.157160"
165487         (139)    1           7.5596 (    1.05) /_  -30.0
165487         (140)    2           7.5596 (    1.05) /_ -150.0
165487         (141)    3           7.5596 (    1.05) /_   90.0
------------
283952         (149)    1           7.5597 (    1.05) /_  -30.0
283952         (150)    2           7.5596 (    1.05) /_ -150.0
283952         (151)    3           7.5596 (    1.05) /_   90.0

ELEMENT = "Line.157163"
165500         (152)    1           7.5597 (    1.05) /_  -30.0
165500         (153)    2           7.5596 (    1.05) /_ -150.0
165500         (154)    3           7.5596 (    1.05) /_   90.0
------------
165501         (155)    1           7.5597 (    1.05) /_  -30.0
165501         (156)    2           7.5596 (    1.05) /_ -150.0
165501         (157)    3           7.5596 (    1.05) /_   90.0

ELEMENT = "Line.157165"
165495         (158)    1           7.5597 (    1.05) /_  -30.0
165495         (159)    2           7.5596 (    1.05) /_ -150.0
165495         (160)    3           7.5596 (    1.05) /_   90.0
------------
165500         (152)    1           7.5597 (    1.05) /_  -30.0
165500         (153)    2           7.5596 (    1.05) /_ -150.0
165500         (154)    3           7.5596 (    1.05) /_   90.0

ELEMENT = "Line.157167"
165501         (155)    1           7.5597 (    1.05) /_  -30.0
165501         (156)    2           7.5596 (    1.05) /_ -150.0
165501         (157)    3           7.5596 (    1.05) /_   90.0
------------
165503         (161)    1           7.5597 (    1.05) /_  -30.0
165503         (162)    2           7.5596 (    1.05) /_ -150.0
165503         (163)    3           7.5596 (    1.05) /_   90.0

ELEMENT = "Line.157168"
165495         (158)    1           7.5597 (    1.05) /_  -30.0
165495         (159)    2           7.5596 (    1.05) /_ -150.0
165495         (160)    3           7.5596 (    1.05) /_   90.0
------------
165504         (164)    1           7.5597 (    1.05) /_  -30.0
165504         (165)    2           7.5597 (    1.05) /_ -150.0
165504         (166)    3           7.5597 (    1.05) /_   90.0

ELEMENT = "Line.174945"
181883         (167)    1           7.5597 (    1.05) /_  -30.0
181883         (168)    2           7.5597 (    1.05) /_ -150.0
181883         (169)    3           7.5597 (    1.05) /_   90.0
------------
158676         (170)    1           7.5597 (    1.05) /_  -30.0
158676         (171)    2           7.5597 (    1.05) /_ -150.0
158676         (172)    3           7.5597 (    1.05) /_   90.0

ELEMENT = "Line.174947"
181889         (173)    1           7.5597 (    1.05) /_  -30.0
181889         (174)    2           7.5597 (    1.05) /_ -150.0
181889         (175)    3           7.5597 (    1.05) /_   90.0
------------
181890         (176)    1           7.5597 (    1.05) /_  -30.0
181890         (177)    2           7.5597 (    1.05) /_ -150.0
181890         (178)    3           7.5597 (    1.05) /_   90.0

ELEMENT = "Line.174948"
181891         (179)    1           7.5597 (    1.05) /_  -30.0
181891         (180)    2           7.5597 (    1.05) /_ -150.0
181891         (181)    3           7.5597 (    1.05) /_   90.0
------------
181892         (182)    1           7.5597 (    1.05) /_  -30.0
181892         (183)    2           7.5597 (    1.05) /_ -150.0
181892         (184)    3           7.5597 (    1.05) /_   90.0

ELEMENT = "Line.174950"
181884         (185)    1           7.5597 (    1.05) /_  -30.0
181884         (186)    2           7.5597 (    1.05) /_ -150.0
181884         (187)    3           7.5597 (    1.05) /_   90.0
------------
181886         (188)    1           7.5597 (    1.05) /_  -30.0
181886         (189)    2           7.5597 (    1.05) /_ -150.0
181886         (190)    3           7.5597 (    1.05) /_   90.0

ELEMENT = "Line.174951"
181886         (188)    1           7.5597 (    1.05) /_  -30.0
181886         (189)    2           7.5597 (    1.05) /_ -150.0
181886         (190)    3           7.5597 (    1.05) /_   90.0
------------
181889         (173)    1           7.5597 (    1.05) /_  -30.0
181889         (174)    2           7.5597 (    1.05) /_ -150.0
181889         (175)    3           7.5597 (    1.05) /_   90.0

ELEMENT = "Line.174952"
181886         (188)    1           7.5597 (    1.05) /_  -30.0
181886         (189)    2           7.5597 (    1.05) /_ -150.0
181886         (190)    3           7.5597 (    1.05) /_   90.0
------------
181888         (191)    1           7.5597 (    1.05) /_  -30.0
181888         (192)    2           7.5597 (    1.05) /_ -150.0
181888         (193)    3           7.5597 (    1.05) /_   90.0

ELEMENT = "Line.174953"
181888         (191)    1           7.5597 (    1.05) /_  -30.0
181888         (192)    2           7.5597 (    1.05) /_ -150.0
181888         (193)    3           7.5597 (    1.05) /_   90.0
------------
181885         (194)    1           7.5597 (    1.05) /_  -30.0
181885         (195)    2           7.5597 (    1.05) /_ -150.0
181885         (196)    3           7.5597 (    1.05) /_   90.0

ELEMENT = "Line.174954"
181885         (194)    1           7.5597 (    1.05) /_  -30.0
181885         (195)    2           7.5597 (    1.05) /_ -150.0
181885         (196)    3           7.5597 (    1.05) /_   90.0
------------
181887         (197)    1           7.5597 (    1.05) /_  -30.0
181887         (198)    2           7.5597 (    1.05) /_ -150.0
181887         (199)    3           7.5597 (    1.05) /_   90.0

ELEMENT = "Line.174955"
181887         (197)    1           7.5597 (    1.05) /_  -30.0
181887         (198)    2           7.5597 (    1.05) /_ -150.0
181887         (199)    3           7.5597 (    1.05) /_   90.0
------------
181891         (179)    1           7.5597 (    1.05) /_  -30.0
181891         (180)    2           7.5597 (    1.05) /_ -150.0
181891         (181)    3           7.5597 (    1.05) /_   90.0

ELEMENT = "Line.174956"
181890         (176)    1           7.5597 (    1.05) /_  -30.0
181890         (177)    2           7.5597 (    1.05) /_ -150.0
181890         (178)    3           7.5597 (    1.05) /_   90.0
------------
181893         (200)    1           7.5597 (    1.05) /_  -30.0
181893         (201)    2           7.5597 (    1.05) /_ -150.0
181893         (202)    3           7.5597 (    1.05) /_   90.0

ELEMENT = "Line.174957"
181887         (197)    1           7.5597 (    1.05) /_  -30.0
181887         (198)    2           7.5597 (    1.05) /_ -150.0
181887         (199)    3           7.5597 (    1.05) /_   90.0
------------
181894         (203)    1           7.5597 (    1.05) /_  -30.0
181894         (204)    2           7.5597 (    1.05) /_ -150.0
181894         (205)    3           7.5597 (    1.05) /_   90.0

ELEMENT = "Line.174958"
181895         (206)    1           7.5597 (    1.05) /_  -30.0
181895         (207)    2           7.5597 (    1.05) /_ -150.0
181895         (208)    3           7.5597 (    1.05) /_   90.0
------------
181896         (209)    1           7.5597 (    1.05) /_  -30.0
181896         (210)    2           7.5597 (    1.05) /_ -150.0
181896         (211)    3           7.5597 (    1.05) /_   90.0

ELEMENT = "Line.174959"
181894         (203)    1           7.5597 (    1.05) /_  -30.0
181894         (204)    2           7.5597 (    1.05) /_ -150.0
181894         (205)    3           7.5597 (    1.05) /_   90.0
------------
181895         (206)    1           7.5597 (    1.05) /_  -30.0
181895         (207)    2           7.5597 (    1.05) /_ -150.0
181895         (208)    3           7.5597 (    1.05) /_   90.0

ELEMENT = "Line.174960"
181896         (209)    1           7.5597 (    1.05) /_  -30.0
181896         (210)    2           7.5597 (    1.05) /_ -150.0
181896         (211)    3           7.5597 (    1.05) /_   90.0
------------
181897         (212)    1           7.5597 (    1.05) /_  -30.0
181897         (213)    2           7.5597 (    1.05) /_ -150.0
181897         (214)    3           7.5597 (    1.05) /_   90.0

ELEMENT = "Line.174961"
181892         (182)    1           7.5597 (    1.05) /_  -30.0
------------
181898         (215)    1           7.5597 (    1.05) /_  -30.0

ELEMENT = "Line.174962"
181898         (215)    1           7.5597 (    1.05) /_  -30.0
------------
181899         (216)    1           7.5597 (    1.05) /_  -30.0

ELEMENT = "Line.174963"
181899         (216)    1           7.5597 (    1.05) /_  -30.0
------------
181900         (217)    1           7.5597 (    1.05) /_  -30.0

ELEMENT = "Line.174964"
181900         (217)    1           7.5597 (    1.05) /_  -30.0
------------
181901         (218)    1           7.5597 (    1.05) /_  -30.0

ELEMENT = "Line.174965"
181901         (218)    1           7.5597 (    1.05) /_  -30.0
------------
181902         (219)    1           7.5597 (    1.05) /_  -30.0

ELEMENT = "Line.174966"
181892         (184)    3           7.5597 (    1.05) /_   90.0
------------
181908         (220)    3           7.5597 (    1.05) /_   90.0

ELEMENT = "Line.174967"
181908         (220)    3           7.5597 (    1.05) /_   90.0
------------
181903         (221)    3           7.5597 (    1.05) /_   90.0

ELEMENT = "Line.174968"
181908         (220)    3           7.5597 (    1.05) /_   90.0
------------
181904         (222)    3           7.5597 (    1.05) /_   90.0

ELEMENT = "Line.174969"
181908         (220)    3           7.5597 (    1.05) /_   90.0
------------
181905         (223)    3           7.5597 (    1.05) /_   90.0

ELEMENT = "Line.174970"
181905         (223)    3           7.5597 (    1.05) /_   90.0
------------
181909         (224)    3           7.5597 (    1.05) /_   90.0

ELEMENT = "Line.174971"
181909         (224)    3           7.5597 (    1.05) /_   90.0
------------
181907         (225)    3           7.5597 (    1.05) /_   90.0

ELEMENT = "Line.174972"
181909         (224)    3           7.5597 (    1.05) /_   90.0
------------
181906         (226)    3           7.5597 (    1.05) /_   90.0

ELEMENT = "Line.174973"
181892         (183)    2           7.5597 (    1.05) /_ -150.0
------------
181910         (227)    2           7.5597 (    1.05) /_ -150.0

ELEMENT = "Line.174974"
181910         (227)    2           7.5597 (    1.05) /_ -150.0
------------
181911         (228)    2           7.5597 (    1.05) /_ -150.0

ELEMENT = "Line.174975"
181911         (228)    2           7.5597 (    1.05) /_ -150.0
------------
181916         (229)    2           7.5597 (    1.05) /_ -150.0

ELEMENT = "Line.174976"
181916         (229)    2           7.5597 (    1.05) /_ -150.0
------------
181915         (230)    2           7.5597 (    1.05) /_ -150.0

ELEMENT = "Line.174977"
181916         (229)    2           7.5597 (    1.05) /_ -150.0
------------
181912         (231)    2           7.5597 (    1.05) /_ -150.0

ELEMENT = "Line.174978"
181912         (231)    2           7.5597 (    1.05) /_ -150.0
------------
181913         (232)    2           7.5597 (    1.05) /_ -150.0

ELEMENT = "Line.174979"
181913         (232)    2           7.5597 (    1.05) /_ -150.0
------------
181914         (233)    2           7.5597 (    1.05) /_ -150.0

ELEMENT = "Line.174980"
181883         (167)    1           7.5597 (    1.05) /_  -30.0
181883         (168)    2           7.5597 (    1.05) /_ -150.0
181883         (169)    3           7.5597 (    1.05) /_   90.0
------------
181917         (234)    1           7.5597 (    1.05) /_  -30.0
181917         (235)    2           7.5597 (    1.05) /_ -150.0
181917         (236)    3           7.5597 (    1.05) /_   90.0

ELEMENT = "Line.174981"
181917         (234)    1           7.5597 (    1.05) /_  -30.0
181917         (235)    2           7.5597 (    1.05) /_ -150.0
181917         (236)    3           7.5597 (    1.05) /_   90.0
------------
181920         (237)    1           7.5597 (    1.05) /_  -30.0
181920         (238)    2           7.5597 (    1.05) /_ -150.0
181920         (239)    3           7.5597 (    1.05) /_   90.0

ELEMENT = "Line.174982"
181917         (234)    1           7.5597 (    1.05) /_  -30.0
181917         (235)    2           7.5597 (    1.05) /_ -150.0
181917         (236)    3           7.5597 (    1.05) /_   90.0
------------
181918         (240)    1           7.5597 (    1.05) /_  -30.0
181918         (241)    2           7.5597 (    1.05) /_ -150.0
181918         (242)    3           7.5597 (    1.05) /_   90.0

ELEMENT = "Line.174983"
181918         (240)    1           7.5597 (    1.05) /_  -30.0
181918         (241)    2           7.5597 (    1.05) /_ -150.0
181918         (242)    3           7.5597 (    1.05) /_   90.0
------------
181919         (243)    1           7.5597 (    1.05) /_  -30.0
181919         (244)    2           7.5597 (    1.05) /_ -150.0
181919         (245)    3           7.5597 (    1.05) /_   90.0

ELEMENT = "Line.174984"
181919         (243)    1           7.5597 (    1.05) /_  -30.0
181919         (244)    2           7.5597 (    1.05) /_ -150.0
181919         (245)    3           7.5597 (    1.05) /_   90.0
------------
152566         (246)    1           7.5597 (    1.05) /_  -30.0
152566         (247)    2           7.5597 (    1.05) /_ -150.0
152566         (248)    3           7.5597 (    1.05) /_   90.0

ELEMENT = "Line.174987"
181918         (240)    1           7.5597 (    1.05) /_  -30.0
181918         (241)    2           7.5597 (    1.05) /_ -150.0
181918         (242)    3           7.5597 (    1.05) /_   90.0
------------
181925         (249)    1           7.5597 (    1.05) /_  -30.0
181925         (250)    2           7.5597 (    1.05) /_ -150.0
181925         (251)    3           7.5597 (    1.05) /_   90.0

ELEMENT = "Line.174988"
181925         (249)    1           7.5597 (    1.05) /_  -30.0
181925         (250)    2           7.5597 (    1.05) /_ -150.0
181925         (251)    3           7.5597 (    1.05) /_   90.0
------------
181926         (252)    1           7.5597 (    1.05) /_  -30.0
181926         (253)    2           7.5597 (    1.05) /_ -150.0
181926         (254)    3           7.5597 (    1.05) /_   90.0

ELEMENT = "Line.174989"
181926         (252)    1           7.5597 (    1.05) /_  -30.0
181926         (253)    2           7.5597 (    1.05) /_ -150.0
181926         (254)    3           7.5597 (    1.05) /_   90.0
------------
181927         (255)    1           7.5597 (    1.05) /_  -30.0
181927         (256)    2           7.5597 (    1.05) /_ -150.0
181927         (257)    3           7.5597 (    1.05) /_   90.0

ELEMENT = "Line.174990"
181925         (249)    1           7.5597 (    1.05) /_  -30.0
181925         (250)    2           7.5597 (    1.05) /_ -150.0
181925         (251)    3           7.5597 (    1.05) /_   90.0
------------
181928         (258)    1           7.5597 (    1.05) /_  -30.0
181928         (259)    2           7.5597 (    1.05) /_ -150.0
181928         (260)    3           7.5597 (    1.05) /_   90.0

ELEMENT = "Line.174991"
181919         (243)    1           7.5597 (    1.05) /_  -30.0
181919         (244)    2           7.5597 (    1.05) /_ -150.0
181919         (245)    3           7.5597 (    1.05) /_   90.0
------------
181924         (261)    1           7.5597 (    1.05) /_  -30.0
181924         (262)    2           7.5597 (    1.05) /_ -150.0
181924         (263)    3           7.5597 (    1.05) /_   90.0

ELEMENT = "Line.174994"
181933         (264)    3           7.5597 (    1.05) /_   90.0
------------
181934         (265)    3           7.5597 (    1.05) /_   90.0

ELEMENT = "Line.174995"
255317         (266)    1           7.5597 (    1.05) /_  -30.0
255317         (267)    2           7.5597 (    1.05) /_ -150.0
255317         (268)    3           7.5597 (    1.05) /_   90.0
------------
181929         (269)    1           7.5597 (    1.05) /_  -30.0
181929         (270)    2           7.5597 (    1.05) /_ -150.0
181929         (271)    3           7.5597 (    1.05) /_   90.0

ELEMENT = "Line.174998"
181929         (269)    1           7.5597 (    1.05) /_  -30.0
181929         (270)    2           7.5597 (    1.05) /_ -150.0
181929         (271)    3           7.5597 (    1.05) /_   90.0
------------
181936         (272)    1           7.5597 (    1.05) /_  -30.0
181936         (273)    2           7.5597 (    1.05) /_ -150.0
181936         (274)    3           7.5597 (    1.05) /_   90.0

ELEMENT = "Line.174999"
181936         (272)    1           7.5597 (    1.05) /_  -30.0
181936         (273)    2           7.5597 (    1.05) /_ -150.0
181936         (274)    3           7.5597 (    1.05) /_   90.0
------------
181932         (275)    1           7.5597 (    1.05) /_  -30.0
181932         (276)    2           7.5597 (    1.05) /_ -150.0
181932         (277)    3           7.5597 (    1.05) /_   90.0

ELEMENT = "Line.175000"
181932         (277)    3           7.5597 (    1.05) /_   90.0
------------
181933         (264)    3           7.5597 (    1.05) /_   90.0

ELEMENT = "Line.175001"
181939         (278)    1           7.5597 (    1.05) /_  -30.0
181939         (279)    2           7.5597 (    1.05) /_ -150.0
181939         (280)    3           7.5597 (    1.05) /_   90.0
------------
181940         (281)    1           7.5597 (    1.05) /_  -30.0
181940         (282)    2           7.5597 (    1.05) /_ -150.0
181940         (283)    3           7.5597 (    1.05) /_   90.0

ELEMENT = "Line.175002"
181927         (255)    1           7.5597 (    1.05) /_  -30.0
181927         (256)    2           7.5597 (    1.05) /_ -150.0
181927         (257)    3           7.5597 (    1.05) /_   90.0
------------
181937         (284)    1           7.5597 (    1.05) /_  -30.0
181937         (285)    2           7.5597 (    1.05) /_ -150.0
181937         (286)    3           7.5597 (    1.05) /_   90.0

ELEMENT = "Line.175003"
181937         (284)    1           7.5597 (    1.05) /_  -30.0
181937         (285)    2           7.5597 (    1.05) /_ -150.0
181937         (286)    3           7.5597 (    1.05) /_   90.0
------------
181938         (287)    1           7.5597 (    1.05) /_  -30.0
181938         (288)    2           7.5597 (    1.05) /_ -150.0
181938         (289)    3           7.5597 (    1.05) /_   90.0

ELEMENT = "Line.175004"
181938         (287)    1           7.5597 (    1.05) /_  -30.0
181938         (288)    2           7.5597 (    1.05) /_ -150.0
181938         (289)    3           7.5597 (    1.05) /_   90.0
------------
181940         (281)    1           7.5597 (    1.05) /_  -30.0
181940         (282)    2           7.5597 (    1.05) /_ -150.0
181940         (283)    3           7.5597 (    1.05) /_   90.0

ELEMENT = "Line.175005"
181939         (278)    1           7.5597 (    1.05) /_  -30.0
181939         (279)    2           7.5597 (    1.05) /_ -150.0
181939         (280)    3           7.5597 (    1.05) /_   90.0
------------
181941         (290)    1           7.5597 (    1.05) /_  -30.0
181941         (291)    2           7.5597 (    1.05) /_ -150.0
181941         (292)    3           7.5597 (    1.05) /_   90.0

ELEMENT = "Line.175006"
181943         (293)    3           7.5597 (    1.05) /_   90.0
------------
181944         (294)    3           7.5597 (    1.05) /_   90.0

ELEMENT = "Line.175007"
181932         (275)    1           7.5597 (    1.05) /_  -30.0
181932         (276)    2           7.5597 (    1.05) /_ -150.0
181932         (277)    3           7.5597 (    1.05) /_   90.0
------------
181945         (295)    1           7.5597 (    1.05) /_  -30.0
181945         (296)    2           7.5597 (    1.05) /_ -150.0
181945         (297)    3           7.5597 (    1.05) /_   90.0

ELEMENT = "Line.175008"
181945         (295)    1           7.5597 (    1.05) /_  -30.0
181945         (296)    2           7.5597 (    1.05) /_ -150.0
181945         (297)    3           7.5597 (    1.05) /_   90.0
------------
181942         (298)    1           7.5597 (    1.05) /_  -30.0
181942         (299)    2           7.5597 (    1.05) /_ -150.0
181942         (300)    3           7.5597 (    1.05) /_   90.0

ELEMENT = "Line.175009"
181942         (300)    3           7.5597 (    1.05) /_   90.0
------------
181943         (293)    3           7.5597 (    1.05) /_   90.0

ELEMENT = "Line.175010"
236964         (301)    1           7.5597 (    1.05) /_  -30.0
------------
181946         (302)    1           7.5597 (    1.05) /_  -30.0

ELEMENT = "Line.175011"
181946         (302)    1           7.5597 (    1.05) /_  -30.0
------------
181953         (303)    1           7.5597 (    1.05) /_  -30.0


ELEMENT = "Line.175013"
181946         (302)    1           7.5597 (    1.05) /_  -30.0
------------
181947         (304)    1           7.5597 (    1.05) /_  -30.0

ELEMENT = "Line.175014"
181947         (304)    1           7.5597 (    1.05) /_  -30.0
------------
181950         (305)    1           7.5597 (    1.05) /_  -30.0

ELEMENT = "Line.175015"
181947         (304)    1           7.5597 (    1.05) /_  -30.0
------------
181948         (306)    1           7.5597 (    1.05) /_  -30.0

ELEMENT = "Line.175016"
181948         (306)    1           7.5597 (    1.05) /_  -30.0
------------
181951         (307)    1           7.5597 (    1.05) /_  -30.0

ELEMENT = "Line.175017"
181948         (306)    1           7.5597 (    1.05) /_  -30.0
------------
181952         (308)    1           7.5597 (    1.05) /_  -30.0

ELEMENT = "Line.175018"
181954         (309)    1           7.5597 (    1.05) /_  -30.0
------------
181949         (310)    1           7.5597 (    1.05) /_  -30.0

ELEMENT = "Line.175019"
181949         (310)    1           7.5597 (    1.05) /_  -30.0
------------
181955         (311)    1           7.5597 (    1.05) /_  -30.0

ELEMENT = "Line.175020"
181949         (310)    1           7.5597 (    1.05) /_  -30.0
------------
181956         (312)    1           7.5597 (    1.05) /_  -30.0

ELEMENT = "Line.175021"
181956         (312)    1           7.5597 (    1.05) /_  -30.0
------------
236966         (313)    1           7.5597 (    1.05) /_  -30.0

ELEMENT = "Line.175022"
181944         (294)    3           7.5597 (    1.05) /_   90.0
------------
181957         (314)    3           7.5597 (    1.05) /_   90.0

ELEMENT = "Line.175023"
181934         (265)    3           7.5597 (    1.05) /_   90.0
------------
181958         (315)    3           7.5597 (    1.05) /_   90.0

ELEMENT = "Line.175024"
181958         (315)    3           7.5597 (    1.05) /_   90.0
------------
181967         (316)    3           7.5597 (    1.05) /_   90.0

ELEMENT = "Line.175025"
181967         (316)    3           7.5597 (    1.05) /_   90.0
------------
181966         (317)    3           7.5597 (    1.05) /_   90.0

ELEMENT = "Line.175026"
181966         (317)    3           7.5597 (    1.05) /_   90.0
------------
181965         (318)    3           7.5597 (    1.05) /_   90.0

ELEMENT = "Line.175027"
181965         (318)    3           7.5597 (    1.05) /_   90.0
------------
181959         (319)    3           7.5597 (    1.05) /_   90.0


ELEMENT = "Line.175029"
181963         (320)    3           7.5597 (    1.05) /_   90.0
------------
181957         (314)    3           7.5597 (    1.05) /_   90.0

ELEMENT = "Line.175030"
181963         (320)    3           7.5597 (    1.05) /_   90.0
------------
181964         (321)    3           7.5597 (    1.05) /_   90.0

ELEMENT = "Line.175031"
181964         (321)    3           7.5597 (    1.05) /_   90.0
------------
181960         (322)    3           7.5597 (    1.05) /_   90.0

ELEMENT = "Line.175032"
181964         (321)    3           7.5597 (    1.05) /_   90.0
------------
181961         (323)    3           7.5597 (    1.05) /_   90.0

ELEMENT = "Line.175033"
181961         (323)    3           7.5597 (    1.05) /_   90.0
------------
181962         (324)    3           7.5597 (    1.05) /_   90.0

ELEMENT = "Line.175034"
181969         (325)    1           7.5597 (    1.05) /_  -30.0
181969         (326)    2           7.5597 (    1.05) /_ -150.0
181969         (327)    3           7.5597 (    1.05) /_   90.0
------------
181970         (328)    1           7.5597 (    1.05) /_  -30.0
181970         (329)    2           7.5597 (    1.05) /_ -150.0
181970         (330)    3           7.5597 (    1.05) /_   90.0

ELEMENT = "Line.175035"
181971         (331)    1           7.5597 (    1.05) /_  -30.0
181971         (332)    2           7.5597 (    1.05) /_ -150.0
181971         (333)    3           7.5597 (    1.05) /_   90.0
------------
181972         (334)    1           7.5597 (    1.05) /_  -30.0
181972         (335)    2           7.5597 (    1.05) /_ -150.0
181972         (336)    3           7.5597 (    1.05) /_   90.0

ELEMENT = "Line.175036"
181973         (337)    1           7.5597 (    1.05) /_  -30.0
181973         (338)    2           7.5597 (    1.05) /_ -150.0
181973         (339)    3           7.5597 (    1.05) /_   90.0
------------
181974         (340)    1           7.5597 (    1.05) /_  -30.0
181974         (341)    2           7.5597 (    1.05) /_ -150.0
181974         (342)    3           7.5597 (    1.05) /_   90.0

ELEMENT = "Line.175037"
181942         (298)    1           7.5597 (    1.05) /_  -30.0
181942         (299)    2           7.5597 (    1.05) /_ -150.0
181942         (300)    3           7.5597 (    1.05) /_   90.0
------------
181968         (343)    1           7.5597 (    1.05) /_  -30.0
181968         (344)    2           7.5597 (    1.05) /_ -150.0
181968         (345)    3           7.5597 (    1.05) /_   90.0

ELEMENT = "Line.175038"
181968         (343)    1           7.5597 (    1.05) /_  -30.0
181968         (344)    2           7.5597 (    1.05) /_ -150.0
181968         (345)    3           7.5597 (    1.05) /_   90.0
------------
181970         (328)    1           7.5597 (    1.05) /_  -30.0
181970         (329)    2           7.5597 (    1.05) /_ -150.0
181970         (330)    3           7.5597 (    1.05) /_   90.0

ELEMENT = "Line.175040"
181979         (346)    1           7.5597 (    1.05) /_  -30.0
181979         (347)    2           7.5597 (    1.05) /_ -150.0
181979         (348)    3           7.5597 (    1.05) /_   90.0
------------
181971         (331)    1           7.5597 (    1.05) /_  -30.0
181971         (332)    2           7.5597 (    1.05) /_ -150.0
181971         (333)    3           7.5597 (    1.05) /_   90.0

ELEMENT = "Line.175041"
181979         (346)    1           7.5597 (    1.05) /_  -30.0
181979         (347)    2           7.5597 (    1.05) /_ -150.0
181979         (348)    3           7.5597 (    1.05) /_   90.0
------------
181976         (349)    1           7.5597 (    1.05) /_  -30.0
181976         (350)    2           7.5597 (    1.05) /_ -150.0
181976         (351)    3           7.5597 (    1.05) /_   90.0

ELEMENT = "Line.175042"
181976         (349)    1           7.5597 (    1.05) /_  -30.0
181976         (350)    2           7.5597 (    1.05) /_ -150.0
181976         (351)    3           7.5597 (    1.05) /_   90.0
------------
181977         (352)    1           7.5597 (    1.05) /_  -30.0
181977         (353)    2           7.5597 (    1.05) /_ -150.0
181977         (354)    3           7.5597 (    1.05) /_   90.0

ELEMENT = "Line.175043"
181977         (352)    1           7.5597 (    1.05) /_  -30.0
181977         (353)    2           7.5597 (    1.05) /_ -150.0
181977         (354)    3           7.5597 (    1.05) /_   90.0
------------
181978         (355)    1           7.5597 (    1.05) /_  -30.0
181978         (356)    2           7.5597 (    1.05) /_ -150.0
181978         (357)    3           7.5597 (    1.05) /_   90.0

ELEMENT = "Line.175044"
181977         (352)    1           7.5597 (    1.05) /_  -30.0
181977         (353)    2           7.5597 (    1.05) /_ -150.0
181977         (354)    3           7.5597 (    1.05) /_   90.0
------------
181973         (337)    1           7.5597 (    1.05) /_  -30.0
181973         (338)    2           7.5597 (    1.05) /_ -150.0
181973         (339)    3           7.5597 (    1.05) /_   90.0

ELEMENT = "Line.175045"
181978         (356)    2           7.5597 (    1.05) /_ -150.0
------------
181975         (358)    2           7.5597 (    1.05) /_ -150.0

ELEMENT = "Line.175046"
181975         (358)    2           7.5597 (    1.05) /_ -150.0
------------
181982         (359)    2           7.5597 (    1.05) /_ -150.0

ELEMENT = "Line.175047"
181974         (340)    1           7.5597 (    1.05) /_  -30.0
181974         (341)    2           7.5597 (    1.05) /_ -150.0
181974         (342)    3           7.5597 (    1.05) /_   90.0
------------
181980         (360)    1           7.5597 (    1.05) /_  -30.0
181980         (361)    2           7.5597 (    1.05) /_ -150.0
181980         (362)    3           7.5597 (    1.05) /_   90.0

ELEMENT = "Line.175048"
181972         (334)    1           7.5597 (    1.05) /_  -30.0
181972         (335)    2           7.5597 (    1.05) /_ -150.0
181972         (336)    3           7.5597 (    1.05) /_   90.0
------------
181981         (363)    1           7.5597 (    1.05) /_  -30.0
181981         (364)    2           7.5597 (    1.05) /_ -150.0
181981         (365)    3           7.5597 (    1.05) /_   90.0

ELEMENT = "Line.175049"
181968         (343)    1           7.5597 (    1.05) /_  -30.0
181968         (344)    2           7.5597 (    1.05) /_ -150.0
181968         (345)    3           7.5597 (    1.05) /_   90.0
------------
165504         (164)    1           7.5597 (    1.05) /_  -30.0
165504         (165)    2           7.5597 (    1.05) /_ -150.0
165504         (166)    3           7.5597 (    1.05) /_   90.0

ELEMENT = "Line.175051"
165504         (164)    1           7.5597 (    1.05) /_  -30.0
165504         (165)    2           7.5597 (    1.05) /_ -150.0
165504         (166)    3           7.5597 (    1.05) /_   90.0
------------
261881         (366)    1           7.5597 (    1.05) /_  -30.0
261881         (367)    2           7.5597 (    1.05) /_ -150.0
261881         (368)    3           7.5597 (    1.05) /_   90.0

ELEMENT = "Line.175052"
181987         (369)    1           7.5597 (    1.05) /_  -30.0
181987         (370)    2           7.5597 (    1.05) /_ -150.0
181987         (371)    3           7.5597 (    1.05) /_   90.0
------------
181988         (372)    1           7.5597 (    1.05) /_  -30.0
181988         (373)    2           7.5597 (    1.05) /_ -150.0
181988         (374)    3           7.5597 (    1.05) /_   90.0

ELEMENT = "Line.175053"
181928         (258)    1           7.5597 (    1.05) /_  -30.0
181928         (259)    2           7.5597 (    1.05) /_ -150.0
181928         (260)    3           7.5597 (    1.05) /_   90.0
------------
181985         (375)    1           7.5597 (    1.05) /_  -30.0
181985         (376)    2           7.5597 (    1.05) /_ -150.0
181985         (377)    3           7.5597 (    1.05) /_   90.0

ELEMENT = "Line.175054"
181985         (375)    1           7.5597 (    1.05) /_  -30.0
181985         (376)    2           7.5597 (    1.05) /_ -150.0
181985         (377)    3           7.5597 (    1.05) /_   90.0
------------
181986         (378)    1           7.5597 (    1.05) /_  -30.0
181986         (379)    2           7.5597 (    1.05) /_ -150.0
181986         (380)    3           7.5597 (    1.05) /_   90.0

ELEMENT = "Line.175055"
181986         (378)    1           7.5597 (    1.05) /_  -30.0
181986         (379)    2           7.5597 (    1.05) /_ -150.0
181986         (380)    3           7.5597 (    1.05) /_   90.0
------------
181987         (369)    1           7.5597 (    1.05) /_  -30.0
181987         (370)    2           7.5597 (    1.05) /_ -150.0
181987         (371)    3           7.5597 (    1.05) /_   90.0

ELEMENT = "Line.175056"
181988         (372)    1           7.5597 (    1.05) /_  -30.0
181988         (373)    2           7.5597 (    1.05) /_ -150.0
181988         (374)    3           7.5597 (    1.05) /_   90.0
------------
181989         (381)    1           7.5597 (    1.05) /_  -30.0
181989         (382)    2           7.5597 (    1.05) /_ -150.0
181989         (383)    3           7.5597 (    1.05) /_   90.0

ELEMENT = "Line.175057"
181989         (381)    1           7.5597 (    1.05) /_  -30.0
181989         (382)    2           7.5597 (    1.05) /_ -150.0
181989         (383)    3           7.5597 (    1.05) /_   90.0
------------
181992         (384)    1           7.5597 (    1.05) /_  -30.0
181992         (385)    2           7.5597 (    1.05) /_ -150.0
181992         (386)    3           7.5597 (    1.05) /_   90.0

ELEMENT = "Line.175058"
181992         (384)    1           7.5597 (    1.05) /_  -30.0
181992         (385)    2           7.5597 (    1.05) /_ -150.0
181992         (386)    3           7.5597 (    1.05) /_   90.0
------------
181990         (387)    1           7.5597 (    1.05) /_  -30.0
181990         (388)    2           7.5597 (    1.05) /_ -150.0
181990         (389)    3           7.5597 (    1.05) /_   90.0

ELEMENT = "Line.175059"
181992         (384)    1           7.5597 (    1.05) /_  -30.0
181992         (385)    2           7.5597 (    1.05) /_ -150.0
181992         (386)    3           7.5597 (    1.05) /_   90.0
------------
181991         (390)    1           7.5597 (    1.05) /_  -30.0
181991         (391)    2           7.5597 (    1.05) /_ -150.0
181991         (392)    3           7.5597 (    1.05) /_   90.0

ELEMENT = "Line.175060"
181926         (252)    1           7.5597 (    1.05) /_  -30.0
181926         (253)    2           7.5597 (    1.05) /_ -150.0
181926         (254)    3           7.5597 (    1.05) /_   90.0
------------
181993         (393)    1           7.5597 (    1.05) /_  -30.0
181993         (394)    2           7.5597 (    1.05) /_ -150.0
181993         (395)    3           7.5597 (    1.05) /_   90.0

ELEMENT = "Line.175061"
181993         (393)    1           7.5597 (    1.05) /_  -30.0
181993         (394)    2           7.5597 (    1.05) /_ -150.0
181993         (395)    3           7.5597 (    1.05) /_   90.0
------------
181994         (396)    1           7.5597 (    1.05) /_  -30.0
181994         (397)    2           7.5597 (    1.05) /_ -150.0
181994         (398)    3           7.5597 (    1.05) /_   90.0

ELEMENT = "Line.175062"
181994         (396)    1           7.5597 (    1.05) /_  -30.0
181994         (397)    2           7.5597 (    1.05) /_ -150.0
181994         (398)    3           7.5597 (    1.05) /_   90.0
------------
181995         (399)    1           7.5597 (    1.05) /_  -30.0
181995         (400)    2           7.5597 (    1.05) /_ -150.0
181995         (401)    3           7.5597 (    1.05) /_   90.0

ELEMENT = "Line.175063"
181995         (399)    1           7.5597 (    1.05) /_  -30.0
181995         (400)    2           7.5597 (    1.05) /_ -150.0
181995         (401)    3           7.5597 (    1.05) /_   90.0
------------
181996         (402)    1           7.5597 (    1.05) /_  -30.0
181996         (403)    2           7.5597 (    1.05) /_ -150.0
181996         (404)    3           7.5597 (    1.05) /_   90.0

ELEMENT = "Line.175064"
181996         (402)    1           7.5597 (    1.05) /_  -30.0
181996         (403)    2           7.5597 (    1.05) /_ -150.0
181996         (404)    3           7.5597 (    1.05) /_   90.0
------------
181997         (405)    1           7.5597 (    1.05) /_  -30.0
181997         (406)    2           7.5597 (    1.05) /_ -150.0
181997         (407)    3           7.5597 (    1.05) /_   90.0

ELEMENT = "Line.175065"
181998         (408)    1           7.5597 (    1.05) /_  -30.0
181998         (409)    2           7.5597 (    1.05) /_ -150.0
181998         (410)    3           7.5597 (    1.05) /_   90.0
------------
181999         (411)    1           7.5597 (    1.05) /_  -30.0
181999         (412)    2           7.5597 (    1.05) /_ -150.0
181999         (413)    3           7.5597 (    1.05) /_   90.0

ELEMENT = "Line.175066"
182000         (414)    1           7.5597 (    1.05) /_  -30.0
182000         (415)    2           7.5597 (    1.05) /_ -150.0
182000         (416)    3           7.5597 (    1.05) /_   90.0
------------
182001         (417)    1           7.5597 (    1.05) /_  -30.0
182001         (418)    2           7.5597 (    1.05) /_ -150.0
182001         (419)    3           7.5597 (    1.05) /_   90.0

ELEMENT = "Line.175067"
181997         (405)    1           7.5597 (    1.05) /_  -30.0
181997         (406)    2           7.5597 (    1.05) /_ -150.0
181997         (407)    3           7.5597 (    1.05) /_   90.0
------------
182001         (417)    1           7.5597 (    1.05) /_  -30.0
182001         (418)    2           7.5597 (    1.05) /_ -150.0
182001         (419)    3           7.5597 (    1.05) /_   90.0

ELEMENT = "Line.175068"
182000         (414)    1           7.5597 (    1.05) /_  -30.0
182000         (415)    2           7.5597 (    1.05) /_ -150.0
182000         (416)    3           7.5597 (    1.05) /_   90.0
------------
182002         (420)    1           7.5597 (    1.05) /_  -30.0
182002         (421)    2           7.5597 (    1.05) /_ -150.0
182002         (422)    3           7.5597 (    1.05) /_   90.0

ELEMENT = "Line.175069"
181998         (408)    1           7.5597 (    1.05) /_  -30.0
181998         (409)    2           7.5597 (    1.05) /_ -150.0
181998         (410)    3           7.5597 (    1.05) /_   90.0
------------
182003         (423)    1           7.5597 (    1.05) /_  -30.0
182003         (424)    2           7.5597 (    1.05) /_ -150.0
182003         (425)    3           7.5597 (    1.05) /_   90.0

ELEMENT = "Line.175070"
181996         (402)    1           7.5597 (    1.05) /_  -30.0
181996         (403)    2           7.5597 (    1.05) /_ -150.0
181996         (404)    3           7.5597 (    1.05) /_   90.0
------------
181999         (411)    1           7.5597 (    1.05) /_  -30.0
181999         (412)    2           7.5597 (    1.05) /_ -150.0
181999         (413)    3           7.5597 (    1.05) /_   90.0

ELEMENT = "Line.175071"
181997         (405)    1           7.5597 (    1.05) /_  -30.0
181997         (406)    2           7.5597 (    1.05) /_ -150.0
181997         (407)    3           7.5597 (    1.05) /_   90.0
------------
182004         (426)    1           7.5597 (    1.05) /_  -30.0
182004         (427)    2           7.5597 (    1.05) /_ -150.0
182004         (428)    3           7.5597 (    1.05) /_   90.0

ELEMENT = "Line.175072"
182005         (429)    1           7.5597 (    1.05) /_  -30.0
182005         (430)    2           7.5597 (    1.05) /_ -150.0
182005         (431)    3           7.5597 (    1.05) /_   90.0
------------
182006         (432)    1           7.5597 (    1.05) /_  -30.0
182006         (433)    2           7.5597 (    1.05) /_ -150.0
182006         (434)    3           7.5597 (    1.05) /_   90.0

ELEMENT = "Line.175074"
182004         (426)    1           7.5597 (    1.05) /_  -30.0
182004         (427)    2           7.5597 (    1.05) /_ -150.0
182004         (428)    3           7.5597 (    1.05) /_   90.0
------------
182005         (429)    1           7.5597 (    1.05) /_  -30.0
182005         (430)    2           7.5597 (    1.05) /_ -150.0
182005         (431)    3           7.5597 (    1.05) /_   90.0

ELEMENT = "Line.175075"
182006         (432)    1           7.5597 (    1.05) /_  -30.0
182006         (433)    2           7.5597 (    1.05) /_ -150.0
182006         (434)    3           7.5597 (    1.05) /_   90.0
------------
210023         (435)    1           7.5597 (    1.05) /_  -30.0
210023         (436)    2           7.5597 (    1.05) /_ -150.0
210023         (437)    3           7.5597 (    1.05) /_   90.0

ELEMENT = "Line.175078"
182012         (438)    1           7.5597 (    1.05) /_  -30.0
182012         (439)    2           7.5597 (    1.05) /_ -150.0
182012         (440)    3           7.5597 (    1.05) /_   90.0
------------
182013         (441)    1           7.5597 (    1.05) /_  -30.0
182013         (442)    2           7.5597 (    1.05) /_ -150.0
182013         (443)    3           7.5597 (    1.05) /_   90.0

ELEMENT = "Line.175079"
182015         (444)    1           7.5597 (    1.05) /_  -30.0
182015         (445)    2           7.5597 (    1.05) /_ -150.0
182015         (446)    3           7.5597 (    1.05) /_   90.0
------------
182016         (447)    1           7.5597 (    1.05) /_  -30.0
182016         (448)    2           7.5597 (    1.05) /_ -150.0
182016         (449)    3           7.5597 (    1.05) /_   90.0

ELEMENT = "Line.175080"
182004         (426)    1           7.5597 (    1.05) /_  -30.0
182004         (427)    2           7.5597 (    1.05) /_ -150.0
182004         (428)    3           7.5597 (    1.05) /_   90.0
------------
182011         (450)    1           7.5597 (    1.05) /_  -30.0
182011         (451)    2           7.5597 (    1.05) /_ -150.0
182011         (452)    3           7.5597 (    1.05) /_   90.0

ELEMENT = "Line.175081"
182012         (438)    1           7.5597 (    1.05) /_  -30.0
182012         (439)    2           7.5597 (    1.05) /_ -150.0
182012         (440)    3           7.5597 (    1.05) /_   90.0
------------
182011         (450)    1           7.5597 (    1.05) /_  -30.0
182011         (451)    2           7.5597 (    1.05) /_ -150.0
182011         (452)    3           7.5597 (    1.05) /_   90.0

ELEMENT = "Line.175082"
182011         (450)    1           7.5597 (    1.05) /_  -30.0
182011         (451)    2           7.5597 (    1.05) /_ -150.0
182011         (452)    3           7.5597 (    1.05) /_   90.0
------------
182014         (453)    1           7.5597 (    1.05) /_  -30.0
182014         (454)    2           7.5597 (    1.05) /_ -150.0
182014         (455)    3           7.5597 (    1.05) /_   90.0

ELEMENT = "Line.175083"
...